
#======================================================================
# CRYSTAL DATA
#----------------------------------------------------------------------
data_VESTA_phase_1

_chemical_name_common                  'C60 Mg3.966'
_cell_length_a                         17.522400
_cell_length_b                         9.160300
_cell_length_c                         16.020800
_cell_angle_alpha                      90.000000
_cell_angle_beta                       105.144997
_cell_angle_gamma                      90.000000
_cell_volume                           2482.191486
_space_group_name_H-M_alt              'P 1'
_space_group_IT_number                 1

loop_
_space_group_symop_operation_xyz
   'x, y, z'

loop_
   _atom_site_label
   _atom_site_occupancy
   _atom_site_fract_x
   _atom_site_fract_y
   _atom_site_fract_z
   _atom_site_adp_type
   _atom_site_U_iso_or_equiv
   _atom_site_type_symbol
   C1         1.0     0.335800     0.001600     0.170100    Uiso  ? C
   C2         1.0     0.664200     0.998400     0.829900    Uiso  ? C
   C3         1.0     0.664200     0.001600     0.329900    Uiso  ? C
   C4         1.0     0.335800     0.998400     0.670100    Uiso  ? C
   C5         1.0     0.835800     0.501600     0.170100    Uiso  ? C
   C6         1.0     0.164200     0.498400     0.829900    Uiso  ? C
   C7         1.0     0.164200     0.501600     0.329900    Uiso  ? C
   C8         1.0     0.835800     0.498400     0.670100    Uiso  ? C
   C9         1.0     0.174100     0.414200     0.403900    Uiso  ? C
   C10        1.0     0.825900     0.585800     0.596100    Uiso  ? C
   C11        1.0     0.825900     0.414200     0.096100    Uiso  ? C
   C12        1.0     0.174100     0.585800     0.903900    Uiso  ? C
   C13        1.0     0.674100     0.914200     0.403900    Uiso  ? C
   C14        1.0     0.325900     0.085800     0.596100    Uiso  ? C
   C15        1.0     0.325900     0.914200     0.096100    Uiso  ? C
   C16        1.0     0.674100     0.085800     0.903900    Uiso  ? C
   C17        1.0     0.063600     0.352200     0.018500    Uiso  ? C
   C18        1.0     0.936400     0.647800     0.981500    Uiso  ? C
   C19        1.0     0.936400     0.352200     0.481500    Uiso  ? C
   C20        1.0     0.063600     0.647800     0.518500    Uiso  ? C
   C21        1.0     0.563600     0.852200     0.018500    Uiso  ? C
   C22        1.0     0.436400     0.147800     0.981500    Uiso  ? C
   C23        1.0     0.436400     0.852200     0.481500    Uiso  ? C
   C24        1.0     0.563600     0.147800     0.518500    Uiso  ? C
   C25        1.0     0.371400     0.054900     0.535300    Uiso  ? C
   C26        1.0     0.628600     0.945100     0.464700    Uiso  ? C
   C27        1.0     0.628600     0.054900     0.964700    Uiso  ? C
   C28        1.0     0.371400     0.945100     0.035300    Uiso  ? C
   C29        1.0     0.871400     0.554900     0.535300    Uiso  ? C
   C30        1.0     0.128600     0.445100     0.464700    Uiso  ? C
   C31        1.0     0.128600     0.554900     0.964700    Uiso  ? C
   C32        1.0     0.871400     0.445100     0.035300    Uiso  ? C
   C33        1.0     0.452400     0.294400     0.013600    Uiso  ? C
   C34        1.0     0.547600     0.705600     0.986400    Uiso  ? C
   C35        1.0     0.547600     0.294400     0.486400    Uiso  ? C
   C36        1.0     0.452400     0.705600     0.513600    Uiso  ? C
   C37        1.0     0.952400     0.794400     0.013600    Uiso  ? C
   C38        1.0     0.047600     0.205600     0.986400    Uiso  ? C
   C39        1.0     0.047600     0.794400     0.486400    Uiso  ? C
   C40        1.0     0.952400     0.205600     0.513600    Uiso  ? C
   C41        1.0     0.250400     0.337700     0.450300    Uiso  ? C
   C42        1.0     0.749600     0.662300     0.549700    Uiso  ? C
   C43        1.0     0.749600     0.337700     0.049700    Uiso  ? C
   C44        1.0     0.250400     0.662300     0.950300    Uiso  ? C
   C45        1.0     0.750400     0.837700     0.450300    Uiso  ? C
   C46        1.0     0.249600     0.162300     0.549700    Uiso  ? C
   C47        1.0     0.249600     0.837700     0.049700    Uiso  ? C
   C48        1.0     0.750400     0.162300     0.950300    Uiso  ? C
   C49        1.0     0.113500     0.036600     0.415600    Uiso  ? C
   C50        1.0     0.886500     0.963400     0.584400    Uiso  ? C
   C51        1.0     0.886500     0.036600     0.084400    Uiso  ? C
   C52        1.0     0.113500     0.963400     0.915600    Uiso  ? C
   C53        1.0     0.613500     0.536600     0.415600    Uiso  ? C
   C54        1.0     0.386500     0.463400     0.584400    Uiso  ? C
   C55        1.0     0.386500     0.536600     0.084400    Uiso  ? C
   C56        1.0     0.613500     0.463400     0.915600    Uiso  ? C
   C57        1.0     0.191300     0.011000     0.143800    Uiso  ? C
   C58        1.0     0.808700     0.989000     0.856200    Uiso  ? C
   C59        1.0     0.808700     0.011000     0.356200    Uiso  ? C
   C60        1.0     0.191300     0.989000     0.643800    Uiso  ? C
   C61        1.0     0.691300     0.511000     0.143800    Uiso  ? C
   C62        1.0     0.308700     0.489000     0.856200    Uiso  ? C
   C63        1.0     0.308700     0.511000     0.356200    Uiso  ? C
   C64        1.0     0.691300     0.489000     0.643800    Uiso  ? C
   C65        1.0     0.109900     0.379400     0.103200    Uiso  ? C
   C66        1.0     0.890100     0.620600     0.896800    Uiso  ? C
   C67        1.0     0.890100     0.379400     0.396800    Uiso  ? C
   C68        1.0     0.109900     0.620600     0.603200    Uiso  ? C
   C69        1.0     0.609900     0.879400     0.103200    Uiso  ? C
   C70        1.0     0.390100     0.120600     0.896800    Uiso  ? C
   C71        1.0     0.390100     0.879400     0.396800    Uiso  ? C
   C72        1.0     0.609900     0.120600     0.603200    Uiso  ? C
   C73        1.0     0.129800     0.113900     0.125600    Uiso  ? C
   C74        1.0     0.870200     0.886100     0.874400    Uiso  ? C
   C75        1.0     0.870200     0.113900     0.374400    Uiso  ? C
   C76        1.0     0.129800     0.886100     0.625600    Uiso  ? C
   C77        1.0     0.629800     0.613900     0.125600    Uiso  ? C
   C78        1.0     0.370200     0.386100     0.874400    Uiso  ? C
   C79        1.0     0.370200     0.613900     0.374400    Uiso  ? C
   C80        1.0     0.629800     0.386100     0.625600    Uiso  ? C
   C81        1.0     0.438000     0.147100     0.127300    Uiso  ? C
   C82        1.0     0.562000     0.852900     0.872700    Uiso  ? C
   C83        1.0     0.562000     0.147100     0.372700    Uiso  ? C
   C84        1.0     0.438000     0.852900     0.627300    Uiso  ? C
   C85        1.0     0.938000     0.647100     0.127300    Uiso  ? C
   C86        1.0     0.062000     0.352900     0.872700    Uiso  ? C
   C87        1.0     0.062000     0.647100     0.372700    Uiso  ? C
   C88        1.0     0.938000     0.352900     0.627300    Uiso  ? C
   C89        1.0     0.182000     0.083200     0.570800    Uiso  ? C
   C90        1.0     0.818000     0.916800     0.429200    Uiso  ? C
   C91        1.0     0.818000     0.083200     0.929200    Uiso  ? C
   C92        1.0     0.182000     0.916800     0.070800    Uiso  ? C
   C93        1.0     0.682000     0.583200     0.570800    Uiso  ? C
   C94        1.0     0.318000     0.416800     0.429200    Uiso  ? C
   C95        1.0     0.318000     0.583200     0.929200    Uiso  ? C
   C96        1.0     0.682000     0.416800     0.070800    Uiso  ? C
   C97        1.0     0.081200     0.087100     0.039400    Uiso  ? C
   C98        1.0     0.918800     0.912900     0.960600    Uiso  ? C
   C99        1.0     0.918800     0.087100     0.460600    Uiso  ? C
   C100       1.0     0.081200     0.912900     0.539400    Uiso  ? C
   C101       1.0     0.581200     0.587100     0.039400    Uiso  ? C
   C102       1.0     0.418800     0.412900     0.960600    Uiso  ? C
   C103       1.0     0.418800     0.587100     0.460600    Uiso  ? C
   C104       1.0     0.581200     0.412900     0.539400    Uiso  ? C
   C105       1.0     0.309200     0.489100     0.176900    Uiso  ? C
   C106       1.0     0.690800     0.510900     0.823100    Uiso  ? C
   C107       1.0     0.690800     0.489100     0.323100    Uiso  ? C
   C108       1.0     0.309200     0.510900     0.676900    Uiso  ? C
   C109       1.0     0.809200     0.989100     0.176900    Uiso  ? C
   C110       1.0     0.190800     0.010900     0.823100    Uiso  ? C
   C111       1.0     0.190800     0.989100     0.323100    Uiso  ? C
   C112       1.0     0.809200     0.010900     0.676900    Uiso  ? C
   C113       1.0     0.182000     0.085400     0.389900    Uiso  ? C
   C114       1.0     0.818000     0.914600     0.610100    Uiso  ? C
   C115       1.0     0.818000     0.085400     0.110100    Uiso  ? C
   C116       1.0     0.182000     0.914600     0.889900    Uiso  ? C
   C117       1.0     0.682000     0.585400     0.389900    Uiso  ? C
   C118       1.0     0.318000     0.414600     0.610100    Uiso  ? C
   C119       1.0     0.318000     0.585400     0.110100    Uiso  ? C
   C120       1.0     0.682000     0.414600     0.889900    Uiso  ? C
   C121       1.0     0.420500     0.415400     0.137900    Uiso  ? C
   C122       1.0     0.579500     0.584600     0.862100    Uiso  ? C
   C123       1.0     0.579500     0.415400     0.362100    Uiso  ? C
   C124       1.0     0.420500     0.584600     0.637900    Uiso  ? C
   C125       1.0     0.920500     0.915400     0.137900    Uiso  ? C
   C126       1.0     0.079500     0.084600     0.862100    Uiso  ? C
   C127       1.0     0.079500     0.915400     0.362100    Uiso  ? C
   C128       1.0     0.920500     0.084600     0.637900    Uiso  ? C
   C129       1.0     0.371400     0.387600     0.194700    Uiso  ? C
   C130       1.0     0.628600     0.612400     0.805300    Uiso  ? C
   C131       1.0     0.628600     0.387600     0.305300    Uiso  ? C
   C132       1.0     0.371400     0.612400     0.694700    Uiso  ? C
   C133       1.0     0.871400     0.887600     0.194700    Uiso  ? C
   C134       1.0     0.128600     0.112400     0.805300    Uiso  ? C
   C135       1.0     0.128600     0.887600     0.305300    Uiso  ? C
   C136       1.0     0.871400     0.112400     0.694700    Uiso  ? C
   C137       1.0     0.249500     0.163700     0.449800    Uiso  ? C
   C138       1.0     0.750500     0.836300     0.550200    Uiso  ? C
   C139       1.0     0.750500     0.163700     0.050200    Uiso  ? C
   C140       1.0     0.249500     0.836300     0.949800    Uiso  ? C
   C141       1.0     0.749500     0.663700     0.449800    Uiso  ? C
   C142       1.0     0.250500     0.336300     0.550200    Uiso  ? C
   C143       1.0     0.250500     0.663700     0.050200    Uiso  ? C
   C144       1.0     0.749500     0.336300     0.949800    Uiso  ? C
   C145       1.0     0.459000     0.296200     0.105900    Uiso  ? C
   C146       1.0     0.541000     0.703800     0.894100    Uiso  ? C
   C147       1.0     0.541000     0.296200     0.394100    Uiso  ? C
   C148       1.0     0.459000     0.703800     0.605900    Uiso  ? C
   C149       1.0     0.959000     0.796200     0.105900    Uiso  ? C
   C150       1.0     0.041000     0.203800     0.894100    Uiso  ? C
   C151       1.0     0.041000     0.796200     0.394100    Uiso  ? C
   C152       1.0     0.959000     0.203800     0.605900    Uiso  ? C
   C153       1.0     0.114600     0.035400     0.505700    Uiso  ? C
   C154       1.0     0.885400     0.964600     0.494300    Uiso  ? C
   C155       1.0     0.885400     0.035400     0.994300    Uiso  ? C
   C156       1.0     0.114600     0.964600     0.005700    Uiso  ? C
   C157       1.0     0.614600     0.535400     0.505700    Uiso  ? C
   C158       1.0     0.385400     0.464600     0.494300    Uiso  ? C
   C159       1.0     0.385400     0.535400     0.994300    Uiso  ? C
   C160       1.0     0.614600     0.464600     0.005700    Uiso  ? C
   C161       1.0     0.267800     0.038700     0.211200    Uiso  ? C
   C162       1.0     0.732200     0.961300     0.788800    Uiso  ? C
   C163       1.0     0.732200     0.038700     0.288800    Uiso  ? C
   C164       1.0     0.267800     0.961300     0.711200    Uiso  ? C
   C165       1.0     0.767800     0.538700     0.211200    Uiso  ? C
   C166       1.0     0.232200     0.461300     0.788800    Uiso  ? C
   C167       1.0     0.232200     0.538700     0.288800    Uiso  ? C
   C168       1.0     0.767800     0.461300     0.711200    Uiso  ? C
   C169       1.0     0.280700     0.202700     0.225000    Uiso  ? C
   C170       1.0     0.719300     0.797300     0.775000    Uiso  ? C
   C171       1.0     0.719300     0.202700     0.275000    Uiso  ? C
   C172       1.0     0.280700     0.797300     0.725000    Uiso  ? C
   C173       1.0     0.780700     0.702700     0.225000    Uiso  ? C
   C174       1.0     0.219300     0.297300     0.775000    Uiso  ? C
   C175       1.0     0.219300     0.702700     0.275000    Uiso  ? C
   C176       1.0     0.780700     0.297300     0.725000    Uiso  ? C
   C177       1.0     0.335600     0.000800     0.379400    Uiso  ? C
   C178       1.0     0.664400     0.999200     0.620600    Uiso  ? C
   C179       1.0     0.664400     0.000800     0.120600    Uiso  ? C
   C180       1.0     0.335600     0.999200     0.879400    Uiso  ? C
   C181       1.0     0.835600     0.500800     0.379400    Uiso  ? C
   C182       1.0     0.164400     0.499200     0.620600    Uiso  ? C
   C183       1.0     0.164400     0.500800     0.120600    Uiso  ? C
   C184       1.0     0.835600     0.499200     0.879400    Uiso  ? C
   C185       1.0     0.390700     0.121500     0.184600    Uiso  ? C
   C186       1.0     0.609300     0.878500     0.815400    Uiso  ? C
   C187       1.0     0.609300     0.121500     0.315400    Uiso  ? C
   C188       1.0     0.390700     0.878500     0.684600    Uiso  ? C
   C189       1.0     0.890700     0.621500     0.184600    Uiso  ? C
   C190       1.0     0.109300     0.378500     0.815400    Uiso  ? C
   C191       1.0     0.109300     0.621500     0.315400    Uiso  ? C
   C192       1.0     0.890700     0.378500     0.684600    Uiso  ? C
   C193       1.0     0.232400     0.463400     0.200600    Uiso  ? C
   C194       1.0     0.767600     0.536600     0.799400    Uiso  ? C
   C195       1.0     0.767600     0.463400     0.299400    Uiso  ? C
   C196       1.0     0.232400     0.536600     0.700600    Uiso  ? C
   C197       1.0     0.732400     0.963400     0.200600    Uiso  ? C
   C198       1.0     0.267600     0.036600     0.799400    Uiso  ? C
   C199       1.0     0.267600     0.963400     0.299400    Uiso  ? C
   C200       1.0     0.732400     0.036600     0.700600    Uiso  ? C
   C201       1.0     0.140600     0.259500     0.161200    Uiso  ? C
   C202       1.0     0.859400     0.740500     0.838800    Uiso  ? C
   C203       1.0     0.859400     0.259500     0.338800    Uiso  ? C
   C204       1.0     0.140600     0.740500     0.661200    Uiso  ? C
   C205       1.0     0.640600     0.759500     0.161200    Uiso  ? C
   C206       1.0     0.359400     0.240500     0.838800    Uiso  ? C
   C207       1.0     0.359400     0.759500     0.338800    Uiso  ? C
   C208       1.0     0.640600     0.240500     0.661200    Uiso  ? C
   C209       1.0     0.220500     0.299600     0.207600    Uiso  ? C
   C210       1.0     0.779500     0.700400     0.792400    Uiso  ? C
   C211       1.0     0.779500     0.299600     0.292400    Uiso  ? C
   C212       1.0     0.220500     0.700400     0.707600    Uiso  ? C
   C213       1.0     0.720500     0.799600     0.207600    Uiso  ? C
   C214       1.0     0.279500     0.200400     0.792400    Uiso  ? C
   C215       1.0     0.279500     0.799600     0.292400    Uiso  ? C
   C216       1.0     0.720500     0.200400     0.707600    Uiso  ? C
   C217       1.0     0.362900     0.240800     0.229400    Uiso  ? C
   C218       1.0     0.637100     0.759200     0.770600    Uiso  ? C
   C219       1.0     0.637100     0.240800     0.270600    Uiso  ? C
   C220       1.0     0.362900     0.759200     0.729400    Uiso  ? C
   C221       1.0     0.862900     0.740800     0.229400    Uiso  ? C
   C222       1.0     0.137100     0.259200     0.770600    Uiso  ? C
   C223       1.0     0.137100     0.740800     0.270600    Uiso  ? C
   C224       1.0     0.862900     0.259200     0.729400    Uiso  ? C
   C225       1.0     0.426100     0.059700     0.051000    Uiso  ? C
   C226       1.0     0.573900     0.940300     0.949000    Uiso  ? C
   C227       1.0     0.573900     0.059700     0.449000    Uiso  ? C
   C228       1.0     0.426100     0.940300     0.551000    Uiso  ? C
   C229       1.0     0.926100     0.559700     0.051000    Uiso  ? C
   C230       1.0     0.073900     0.440300     0.949000    Uiso  ? C
   C231       1.0     0.073900     0.559700     0.449000    Uiso  ? C
   C232       1.0     0.926100     0.440300     0.551000    Uiso  ? C
   C233       1.0     0.326600     0.086300     0.447700    Uiso  ? C
   C234       1.0     0.673400     0.913700     0.552300    Uiso  ? C
   C235       1.0     0.673400     0.086300     0.052300    Uiso  ? C
   C236       1.0     0.326600     0.913700     0.947700    Uiso  ? C
   C237       1.0     0.826600     0.586300     0.447700    Uiso  ? C
   C238       1.0     0.173400     0.413700     0.552300    Uiso  ? C
   C239       1.0     0.173400     0.586300     0.052300    Uiso  ? C
   C240       1.0     0.826600     0.413700     0.947700    Uiso  ? C
